[General]

**.testing = true
**.testTimeout = 0
network = multihomed

sim-time-limit = 1min
# cpu-time-limit = 3s


# udp app (off) {{{
**.numUdpApps = 0
# **.udpAppType = "UDPApp"

# tcp app (off)
**.numTcpApps = 0
**.sctp_client.tcpApp[*].typename = "TCPBasicClientApp"
**.sctp_server.tcpApp[*].typename = "TCPSinkApp"

# }}}

################
# sctp apps
################

**.sctpApp[*].ordered = false

# Client {{{
**.sctp_client.numSctpApps = 1
**.sctp_client.sctpApp[*].localAddress = "10.1.1.1 10.2.1.1"

**.sctp_client.sctpApp[0].typename = "SCTPClient"
**.sctp_client.sctpApp[*].connectAddress = "10.1.3.1"
**.sctp_client.sctpApp[*].primaryPath = "10.1.3.1"
**.sctp_client.sctpApp[0].connectPort = 6666
**.sctp_client.sctpApp[0].startTime = 0s # truncnormal(1s,0.2s)
#**.sctp_client.sctpApp[0].waitToClose = 200ms # truncnormal(1s,0.2s)
**.sctp_client.sctpApp[0].numPacketsToReceive = 1000000
**.sctp_client.sctpApp[*].finishEndsSimulation = true
#**.sctp_client.sctpApp[0].stopTime = 3s # truncnormal(60s,10s)
**.sctp_client.sctpApp[0].outboundStreams = 1
**.sctp_client.sctpApp[0].queueSize = 0

#**.sctp_client.sctpApp[0].numRequestsPerSession = 300
#**.sctp_client.sctpApp[0].requestLength = 14000
#**.sctp_client.sctpApp[0].thinkTime = 0.042s
# streamRequestLengths
# streamRequestRatio

# **.sctp_client.sctpApp[0].sentPk.result-recording-modes = +histogram(packetBytes)

**.sctp_client.ppp[*].queueType = "DropTailQueue"
**.sctp_client.ppp[*].queue.frameCapacity = 100

**.sctp_client.sctpApp[0].prMethod = 1 # TTL
**.sctp_client.sctpApp[0].prValue = 0.1

# }}}
# Server {{{
**.sctp_server.numSctpApps = 1
**.sctp_server.sctpApp[0].typename = "SCTPServer"
**.sctp_server.sctpApp[*].localAddress = "10.1.3.1 10.2.3.1"
**.sctp_server.sctpApp[0].localPort = 6666
**.sctp_server.sctpApp[*].outboundStreams = 1
**.sctp_server.sctpApp[*].readingInterval = 0
**.sctp_server.sctpApp[*].bytesToPush = 0
**.sctp_server.sctpApp[*].queueSize = 0 #Size of sendQueue before App is notified to send new data
**.sctp_server.sctpApp[*].numPacketsToSendPerClient = 0
**.sctp_server.sctpApp[*].numPacketsToReceivePerClient = 0
**.sctp_server.sctpApp[*].finishEndsSimulation = true

**.sctp_server.sctp.sackFrequency = 2
**.sctp_server.sctp.sctpAlgorithmClass = "SCTPAlg"

# }}}

#################
# sctp settings {{{
**.sctp.numGapReports = 3
**.sctp.rtoMin = 1s #default 1
**.sctp.rtoMax = 60s #default 60
**.sctp.rtoInitial = 3s   #default 3
**.sctp.assocMaxRetrans = 10
**.sctp.pathMaxRetrans = 5 #default 5
**.sctp.maxInitRetrans = 8
**.sctp.hbInterval = 30s #default 30
**.sctp.osbWithHeader = false  #default false
**.sctp.padding = false
**.sctp.reactivatePrimaryPath = false
**.sctp.validCookieLifetime = 10s
**.sctp.arwnd = 65535
**.sctp.auth = false
**.sctp.addIP = false
**.sctp.addTime = 0
**.sctp.addAddress = ""
**.sctp.addIpType = "0"
**.sctp.chunks = ""
**.sctp.packetDrop = false   # pkgdrop reporting RFC...
**.sctp.nrSack = true


# TODO
**.sctp.RTXMethod=0  # Always after 3 Sacks > PR!
**.sctp.sackPeriod = 0.02s    # less? or send I-Flag on last chunk?
**.sctp.nagleEnabled = false # otherwise the last chunk always stucks
**.sctp.naglePoint = 1468
**.sctp.maxBurst = 100 # Disable Max Burst.. needed for periodic burst of bigger frames
**.sctp.maxBurstVariant = "maxBurst"
**.sctp.fragment = true
**.sctp.fragPoint = 1400

# **.sctp.strictCwndBooking = true

# }}}
# PF-SCTP {{{

# }}}

################
# Routing {{{
**.sctp_client.routingTable.routingFile = "multi_client.mrt"
**.sctp_server.routingTable.routingFile = "multi_server.mrt"
**.router1.routingTable.routingFile = "multi_router1.mrt"
**.router2.routingTable.routingFile = "multi_router2.mrt"

# }}}

# Channels {{{
# **.channel.result-recording-modes = all

# }}}
# ping app (off) {{{
**.pingApp.destAddr = ""
**.pingApp.srcAddr = ""
**.pingApp.packetSize = 56B
**.pingApp.interval = 1s
**.pingApp.hopLimit = 32
**.pingApp.count = 0
**.pingApp.startTime = 1s
**.pingApp.stopTime = 0
**.pingApp.printPing = true
#**.pingApp.generationTime = 0
# }}}
# tcp settings {{{
**.tcp.mss = 1024
**.tcp.advertisedWindow = 65535 #14336  # 14*mss
**.tcp.sendQueueClass = "TCPVirtualDataSendQueue" #"TCPMsgBasedSendQueue"
**.tcp.receiveQueueClass = "TCPVirtualDataRcvQueue" #"TCPMsgBasedRcvQueue"
#**.tcp.tcpAlgorithmClass="DummyTCPAlg"
**.tcp.tcpAlgorithmClass = "TCPReno"
**.tcp.recordStats = true

# }}}
# NIC configuration > Router {{{
**.router1.ppp[*].queueType = "DropTailQueue"
**.router1.ppp[*].queue.frameCapacity = 100
**.router1.ppp[*].ppp.mtu = 1500 B
**.router2.ppp[*].queueType = "DropTailQueue"
**.router2.ppp[*].queue.frameCapacity = 100
**.router2.ppp[*].ppp.mtu = 1500 B

**.ext[*].filterString = "sctp"
**.ext[*].device = eth0

# }}}

# Statistics TODO {{{
**.vector-recording = true
**.result-recording-modes = all # turn on result recording

# }}}


[Config period_burst]
**.sctp_client.sctpApp[0].numRequestsPerSession = 100
**.sctp_client.sctpApp[0].requestLength = 1400
**.sctp_client.sctpApp[0].numPacketsPerRequest = 100
**.sctp_client.sctpApp[0].thinkTime = 0.042s

[Config period_big_frames]
**.cmtCCVariant                   = "cmt"   # Activate CMT
**.cmtCUCVariant                  = "pseudoCumAckV2"
**.sctp_client.sctpApp[0].numRequestsPerSession = 100
**.sctp_client.sctpApp[0].requestLength = 14000
**.sctp_client.sctpApp[0].thinkTime = 0.042s

[Config period_burst_cmt]
# once one of the sctp queue is full, the whole incoming trafic is discarded, because it can't be sent anymore..
# that looks very much like a omnetpp-sctp implementation issue
# with buffer splitting below this does not happen..

**.cmtCCVariant                   = "cmt"   # Activate CMT
**.cmtCUCVariant                  = "pseudoCumAckV2"
**.sctp_client.sctpApp[0].numRequestsPerSession = 100
**.sctp_client.sctpApp[0].requestLength = 1400
**.sctp_client.sctpApp[0].numPacketsPerRequest = 100
**.sctp_client.sctpApp[0].thinkTime = 0.042s


[Config period_burst_bs]
# the starvation / lock shown above is not present when using buffer splitting.
# The incoming packets are properly distributed amongs the available paths.

**.cmtCCVariant                   = "cmt"   # Activate CMT
**.cmtCUCVariant                  = "pseudoCumAckV2"
**.cmtBufferSplitVariant = "bothSides"
**.cmtBufferSplittingUsesOSB = true
**.sctp_client.sctpApp[0].numRequestsPerSession = 100
**.sctp_client.sctpApp[0].requestLength = 1400
**.sctp_client.sctpApp[0].numPacketsPerRequest = 100
**.sctp_client.sctpApp[0].thinkTime = 0.042s

[Config period_burst_rp]
**.cmtCCVariant                   = "cmtrpv2"   # Activate CMT
**.cmtCUCVariant                  = "pseudoCumAckV2"
**.cmtBufferSplitVariant = "bothSides"
**.cmtBufferSplittingUsesOSB = true
**.sctp_client.sctpApp[0].numRequestsPerSession = 100
**.sctp_client.sctpApp[0].requestLength = 1400
**.sctp_client.sctpApp[0].numPacketsPerRequest = 100
**.sctp_client.sctpApp[0].thinkTime = 0.042s




